<routes>
   <vType id="car" type="passenger" length="5" accel="3.5" decel="2.2" sigma="1.0"/>
   
   <flow id="carflow01" type="car" beg="0" end="100000000" vehsPerHour="100" from="-gneE25" to="gneE14" departLane="best" />
   <flow id="carflow02" type="car" beg="0" end="100000000" vehsPerHour="30" from="-gneE5" to="gneE14" departLane="best" />
   <flow id="carflow03" type="car" beg="0" end="100000000" vehsPerHour="50" from="-gneE13" to="gneE14" departLane="best" />

   <flow id="carflow04" type="car" beg="0" end="100000000" vehsPerHour="120" from="-gneE29" to="gneE28" departLane="best" />
   <flow id="carflow05" type="car" beg="0" end="100000000" vehsPerHour="50" from="-gneE29" to="gneE5" departLane="best" />
   <flow id="carflow06" type="car" beg="0" end="100000000" vehsPerHour="150" from="-gneE29" to="gneE13" departLane="best" />

   <flow id="carflow08" type="car" beg="0" end="100000000" vehsPerHour="50" from="-gneE16" to="gneE29" departLane="best" />
   <flow id="carflow09" type="car" beg="0" end="100000000" vehsPerHour="150" from="-gneE2" to="gneE29" departLane="best" />
   <flow id="carflow10" type="car" beg="0" end="100000000" vehsPerHour="50" from="-gneE30" to="gneE29" departLane="best" />
   
   <flow id="carflow11" type="car" beg="0" end="100000000" vehsPerHour="60" from="-gneE14" to="gneE16" departLane="best" />
   <flow id="carflow12" type="car" beg="0" end="100000000" vehsPerHour="100" from="-gneE14" to="gneE7" departLane="best" />
   <flow id="carflow13" type="car" beg="0" end="100000000" vehsPerHour="130" from="-gneE14" to="gneE30" departLane="best" />
   
   <flow id="carflow07" type="car" beg="0" end="100000000" vehsPerHour="450" from="-gneE29" to="gneE14" departLane="best" />
   <flow id="carflow14" type="car" beg="0" end="100000000" vehsPerHour="250" from="-gneE14" to="gneE29" departLane="best" />
   
   <flow id="carflow15" type="car" beg="0" end="100000000" vehsPerHour="100" from="-gneE28" to="gneE30" departLane="best" />
   <flow id="carflow16" type="car" beg="0" end="100000000" vehsPerHour="120" from="-gneE30" to="gneE28" departLane="best" />
   
   <flow id="carflow17" type="car" beg="0" end="100000000" vehsPerHour="120" from="-gneE5" to="gneE7" departLane="best" />
   <flow id="carflow18" type="car" beg="0" end="100000000" vehsPerHour="50" from="-gneE7" to="gneE5" departLane="best" />
   
   <flow id="carflow19" type="car" beg="0" end="100000000" vehsPerHour="100" from="-gneE13" to="gneE16" departLane="best" />
   <flow id="carflow20" type="car" beg="0" end="100000000" vehsPerHour="120" from="-gneE16" to="gneE13" departLane="best" />
   
   
   
   
   
   
</routes>